
**** 01/28/21 12:42:50 ***** PSpice 16.6.0 (October 2012) ***** ID# 0 ********

 ** Profile: "SCHEMATIC1-sim"  [ E:\DOCTORADO\MiniCycling\Modelado_planta\5-TrabajoPandemia\7-TestDelModeloPID\OBT\4-Analisis de fall


 ****     CIRCUIT DESCRIPTION


******************************************************************************




** Creating circuit file "sim.cir" 
** WARNING: THIS AUTOMATICALLY GENERATED FILE MAY BE OVERWRITTEN BY SUBSEQUENT SIMULATIONS

*Libraries: 
* Profile Libraries :
* Local Libraries :
* From [PSPICE NETLIST] section of C:\Users\delfi\AppData\Roaming\SPB_Data\cdssetup\OrCAD_PSpice/16.6.0/PSpice.ini file:
.lib "C:\Cadence\SPB_16.6\tools\pspice\library\AD8170.lib" 
.lib "C:\Cadence\SPB_16.6\tools\pspice\library\LMH7324.lib" 
.lib "C:\Cadence\SPB_16.6\tools\pspice\library\IXTN660N04T4.lib" 
.lib "C:\Cadence\SPB_16.6\tools\pspice\library\t5kp10a.lib" 
.lib "C:\Cadence\SPB_16.6\tools\pspice\library\MAX4376H.lib" 
.lib "C:\Cadence\SPB_16.6\tools\pspice\library\STD18NF03Lmodif.lib" 
.lib "nom.lib" 

*Analysis directives: 
.TRAN  0 100us 0 1n 
.STEP PARAM cap LIST 235p, 470p, 705p 
.OPTIONS ADVCONV
.OPTIONS ABSTOL= 10.0p
.PROBE64 V(alias(*)) I(alias(*)) W(alias(*)) D(alias(*)) NOISE(alias(*)) 
.INC "..\SCHEMATIC1.net" 



**** INCLUDING SCHEMATIC1.net ****
* source FUENTERMNCONPID
V_Vkepco         N902185 0 5Vdc
X_U28         N900387 N900317 15V -15V N901903 AD817/AD
R_R17         N900427 N900407  27k TC=0,0 
R_R15         N900893 N900467  10K TC=0,0 
C_Cpol         N900467 N900479  1n  TC=0,0 
D_VS-HFA135NH40PBF-ND         N901523 N901575 hfa140nh60r 
X_U4         N901141 N900427 15V -15V N900407 LM7171A/NS
V_V3         -15V 0 -15
X_U7         N900391 0 0 VMAX 15V MAX4376H 
L_Liman         N901575 N901569  5uH  
V_Vgenerador         N900571 0 DC 0 
+PULSE 0 {valto} 0 10n 10n 100u 150u
V_Vpolariza         N900893 0 0
L_Lsource         N900373 N901655  20n  
C_CCOMPsh         N900373 N900391  10n  TC=0,0 
R_Rg_ext         N900479 VG  27 TC=0,0 
V_V2         15V 0 15
R_Rfuente         N901575 N9022031  0.1m TC=0,0 
R_R57         N901903 N900317  1 TC=0,0 
R_R64         VD N901523  15 TC=0,0 
R_R13         VMAX N900427  10K TC=0,0 
R_R23         N900829 N900847  10k TC=0,0 
R_Rdiv2         0 N900387  20k TC=0,0 
R_R16         0 N901141  27k TC=0,0 
R_R22         N901903 N900829  10k TC=0,0 
R_Rsh         N900373 N902377  0.00333 TC=0,0 
R_Rsource         0 N901655  0.1m TC=0,0 
R_R48         N901851 N901767  25k TC=0,0 
X_U14         N901723 N901851 15V -15V N901767 LM7171A/NS
R_R18         N900407 N901335  10k TC=0,0 
R_R47         N900571 N900795  10k TC=0,0 
L_Lsh         VS N902377  1n  
X_U6         N901335 N900467 15V -15V N900479 LM7171A/NS
R_R20         N900467 N900479  22k TC=0,0 
R_R21         N900795 0  10k TC=0,0 
C_Csn         VS N900367  100n  TC=0,0 
R_R63         N900847 N901723  10k TC=0,0 
R_Rsn         N900367 VD  10 TC=0,0 
R_R19         0 N901335  22k TC=0,0 
C_Clazo         0 N900387  190p  TC=0,0 
R_R49         0 N901851  10k TC=0,0 
C_Cerror         N900427 N900407  {cap}  TC=0,0 
R_Rdiv1         N900387 VMAX  10k TC=0,0 
L_Lfuente         N902185 N9022031  20n  
X_U26         N900795 N900829 15V -15V N900847 AD817/AD
R_Riman         VD N901569  0.019 TC=0,0 
R_R14         N901767 N901141  10K TC=0,0 
X_U10         VS VD T5KP10A 
R_RCOMPsh         VS N900391  22 TC=0,0 
X_U29         VD VG VS STD18NF03LMODIF 
.PARAM  lpar=20n lparas=5n valto=4 lshunt=1n rcomp=2.2 cap=470p

**** RESUMING sim.cir ****
.END

**** 01/28/21 12:42:50 ***** PSpice 16.6.0 (October 2012) ***** ID# 0 ********

 ** Profile: "SCHEMATIC1-sim"  [ E:\DOCTORADO\MiniCycling\Modelado_planta\5-TrabajoPandemia\7-TestDelModeloPID\OBT\4-Analisis de fall


 ****     Diode MODEL PARAMETERS


******************************************************************************




               hfa140nh60r     X_U28.DX        X_U4.DMOD1      X_U4.DMOD2      
          IS    2.348950E-06   10.000000E-15   10.000000E-15   10.000000E-18 
           N    2                                                            
          BV    1.000000E+03                                                 
         IBV  100.000000E-06                                                 
          RS    2.500000E-03                                                 
          TT    1.000000E-09                                                 
         CJO    4.670770E-09                                                 
          VJ     .4                                                          
           M     .467713                                                     
          EG    1.3                                                          
         XTI     .5                                                          


               X_U7.DX1        X_U7.DY         X_U14.DMOD1     X_U14.DMOD2     
          IS   10.000000E-15    1.000000E-12   10.000000E-15   10.000000E-18 
           N    1.000000E-03     .01                                         


               X_U6.DMOD1      X_U6.DMOD2      X_U26.DX        X_U10.DFMOD     
  T_Measured                                                   25            
   T_Current                                                   27            
          IS   10.000000E-15   10.000000E-18   10.000000E-15   15.000000E-09 
           N                                                    2            
          RS                                                     .019877     
          TT                                                   10.000000E-09 
         CJO                                                   26.000000E-09 
          VJ                                                    2.05769      
           M                                                     .6          


               X_U10.DBDMOD    X_U29.DGD       X_U29.DBD       X_U29.DBS       
  T_Measured   25                                                            
   T_Current   25                                                            
          IS    1.000000E-15  100.000000E-15  100.000000E-15  100.000000E-15 
           N     .5                                                          
          BV                                                   36            
          RS                                                     .0134       
          TT                                                   28.700000E-09 
         CJO                   12.700000E-15   18.700000E-12                 
          VJ                     .791            .751                        
           M                     .348            .449                        


               X_U29.DID       
          IS   10.000000E-15 
          BV   41            


**** 01/28/21 12:42:50 ***** PSpice 16.6.0 (October 2012) ***** ID# 0 ********

 ** Profile: "SCHEMATIC1-sim"  [ E:\DOCTORADO\MiniCycling\Modelado_planta\5-TrabajoPandemia\7-TestDelModeloPID\OBT\4-Analisis de fall


 ****     BJT MODEL PARAMETERS


******************************************************************************




               X_U28.QN        X_U4.NPN1       X_U4.PNP1       X_U14.NPN1      
               NPN             NPN             PNP             NPN             
       LEVEL    1               1               1               1            
          IS  100.000000E-18    1.000000E-15    1.000000E-15    1.000000E-15 
          BF  151.52          100             100             100            
          NF    1               1               1               1            
          BR    1               1               1               1            
          NR    1               1               1               1            
         ISS    0               0               0               0            
          RE    0               0               0               0            
          RC    0               0               0               0            
         CJE    0               0               0               0            
         VJE     .75             .75             .75             .75         
         CJC    0               0               0               0            
         VJC     .75             .75             .75             .75         
         MJC     .33             .33             .33             .33         
        XCJC    1               1               1               1            
         CJS    0               0               0               0            
         VJS     .75             .75             .75             .75         
          KF    0               0               0               0            
          AF    1               1               1               1            
          CN    2.42            2.42            2.2             2.42         
           D     .87             .87             .52             .87         


               X_U14.PNP1      X_U6.NPN1       X_U6.PNP1       X_U26.QN        
               PNP             NPN             PNP             NPN             
       LEVEL    1               1               1               1            
          IS    1.000000E-15    1.000000E-15    1.000000E-15  100.000000E-18 
          BF  100             100             100             151.52         
          NF    1               1               1               1            
          BR    1               1               1               1            
          NR    1               1               1               1            
         ISS    0               0               0               0            
          RE    0               0               0               0            
          RC    0               0               0               0            
         CJE    0               0               0               0            
         VJE     .75             .75             .75             .75         
         CJC    0               0               0               0            
         VJC     .75             .75             .75             .75         
         MJC     .33             .33             .33             .33         
        XCJC    1               1               1               1            
         CJS    0               0               0               0            
         VJS     .75             .75             .75             .75         
          KF    0               0               0               0            
          AF    1               1               1               1            
          CN    2.2             2.42            2.2             2.42         
           D     .52             .87             .52             .87         


**** 01/28/21 12:42:50 ***** PSpice 16.6.0 (October 2012) ***** ID# 0 ********

 ** Profile: "SCHEMATIC1-sim"  [ E:\DOCTORADO\MiniCycling\Modelado_planta\5-TrabajoPandemia\7-TestDelModeloPID\OBT\4-Analisis de fall


 ****     MOSFET MODEL PARAMETERS


******************************************************************************




               X_U29.MOS       
               NMOS            
       LEVEL    3            
           L  100.000000E-06 
           W  100.000000E-06 
         VTO    3.098        
          KP   31.311        
       GAMMA    0            
         PHI     .838        
      LAMBDA    0            
          IS  100.000000E-15 
          JS    0            
          PB     .8          
        PBSW     .8          
          CJ    0            
        CJSW    0            
        CGSO    0            
        CGDO    0            
        CGBO    0            
         TOX  100.000000E-09 
          XJ    0            
       UCRIT   10.000000E+03 
       THETA     .381        
         ETA     .0109       
      DIOMOD    1            
         VFB    0            
        LETA    0            
        WETA    0            
          U0    0            
        TEMP    0            
         VDD    5            
       XPART    0            


**** 01/28/21 12:42:50 ***** PSpice 16.6.0 (October 2012) ***** ID# 0 ********

 ** Profile: "SCHEMATIC1-sim"  [ E:\DOCTORADO\MiniCycling\Modelado_planta\5-TrabajoPandemia\7-TestDelModeloPID\OBT\4-Analisis de fall


 ****     Resistor MODEL PARAMETERS


******************************************************************************




               X_U4.MRAX       X_U4.MRIB       X_U4.MRISC      X_U14.MRAX      
           R    1               1               1               1            
         TC1  -70.000000E-06    4.520560E-03   -1.500000E-03  -70.000000E-06 


               X_U14.MRIB      X_U14.MRISC     X_U6.MRAX       X_U6.MRIB       
           R    1               1               1               1            
         TC1    4.520560E-03   -1.500000E-03  -70.000000E-06    4.520560E-03 


               X_U6.MRISC      X_U10.RLMOD     X_U10.RBVCMOD   
  T_Measured                   25              25            
   T_Current                   27              27            
           R    1               1               1            
         TC1   -1.500000E-03                  840.000000E-06 


**** 01/28/21 12:42:50 ***** PSpice 16.6.0 (October 2012) ***** ID# 0 ********

 ** Profile: "SCHEMATIC1-sim"  [ E:\DOCTORADO\MiniCycling\Modelado_planta\5-TrabajoPandemia\7-TestDelModeloPID\OBT\4-Analisis de fall


 ****     Voltage Controlled Switch MODEL PARAMETERS


******************************************************************************




               X_U7.smod       
         RON     .1          
        ROFF    1.000000E+09 
         VON     .8          
        VOFF     .3          


Model-Specific Temperatures During Sweep  Param value = 2.35e-010

 **** DIODE MODEL PARAMETERS

               X_U10.DFMOD (T_Current 27 T_Measured 25)

         IS        1.750E-08  
         VJ        2.063E+00  
        CJO        2.597E-08  
         RS        1.988E-02  
        IKF        0.000E+00  
         BV                   


 **** RESISTORS

               X_U10.RL <X_U10.RLMOD> (T_Current 27 T_Measured 25)
                              X_U10.RBVC <X_U10.RBVCMOD> (T_Current 27 T_Measured 25)

          R        6.738E+05      1.172E+04  



**** 01/28/21 12:42:50 ***** PSpice 16.6.0 (October 2012) ***** ID# 0 ********

 ** Profile: "SCHEMATIC1-sim"  [ E:\DOCTORADO\MiniCycling\Modelado_planta\5-TrabajoPandemia\7-TestDelModeloPID\OBT\4-Analisis de fall


 ****     INITIAL TRANSIENT SOLUTION       TEMPERATURE =   27.000 DEG C

 ****     CURRENT STEP                     PARAM CAP =  235.0000E-12


******************************************************************************



 NODE   VOLTAGE     NODE   VOLTAGE     NODE   VOLTAGE     NODE   VOLTAGE


(   VD)    5.0000  (   VG)    -.2095  (   VS) 15.22E-09  (  15V)   15.0000      

( -15V)  -15.0000  ( VMAX)     .0254  (N900317)    -.0043                       

(N900367)    5.0000                   (N900373) 443.8E-12                       

(N900387)    -.0048                   (N900391)-65.98E-06                       

(N900407)    -.0956                   (N900427)    -.0289                       

(N900467)    -.0858                   (N900479)    -.2095                       

(N900571)    0.0000                   (N900795)    -.0163                       

(N900829)    -.0158                   (N900847)     .0056                       

(N900893)    0.0000                   (N901141)    -.0299                       

(N901335)    -.0868                   (N901523)    5.0000                       

(N901569)    5.0000                   (N901575)    5.0000                       

(N901655) 443.8E-12                   (N901723)    -.0251                       

(N901767)    -.0103                   (N901851)    -.0241                       

(N901903)    -.0043                   (N902185)    5.0000                       

(N902377) 15.22E-09                   (X_U10.3)   -6.3439                       

(X_U10.4)    5.0000                   (X_U26.3)    -.0158                       

(X_U26.4)   14.4100                   (X_U26.5)   14.4100                       

(X_U26.6)    -.7719                   (X_U26.7)    -.7719                       

(X_U26.8)   -1.3404                   (X_U26.9)     .0056                       

(X_U28.3)    -.0043                   (X_U28.4)   14.4100                       

(X_U28.5)   14.4100                   (X_U28.6)    -.7604                       

(X_U28.7)    -.7604                   (X_U28.8)   -1.3289                       

(X_U28.9)    -.0043                   (X_U29.4)    -.2095                       

(X_U29.5)    -.2095                   (X_U29.6)    5.0000                       

(X_U29.7)    5.0000                   (X_U29.8)    5.0000                       

(X_U29.9) 15.22E-09                   (X_U4.10)    0.0000                       

(X_U4.11)    -.0315                   (X_U4.17)    0.0000                       

(X_U4.18)    -.0319                   (X_U4.19)    -.0329                       

(X_U4.21)   -1.2500                   (X_U4.22)   28.7500                       

(X_U4.23)   28.7500                   (X_U4.24)    1.6551                       

(X_U4.25)    1.0000                   (X_U4.26)    1.0000                       

(X_U4.27)     .8337                   (X_U4.28)     .6836                       

(X_U4.29)    0.0000                   (X_U4.31)    4.0000                       

(X_U4.32)    3.0000                   (X_U4.33)    2.0000                       

(X_U4.34)    1.0000                   (X_U4.38)    -.0315                       

(X_U4.39)    -.0315                   (X_U4.40)   15.0000                       

(X_U4.41)    -.0315                   (X_U4.42)   15.0000                       

(X_U4.43)    0.0000                   (X_U4.44)    0.0000                       

(X_U4.45)    0.0000                   (X_U4.50)  -15.0000                       

(X_U4.51)   99.3000                   (X_U4.52)  -95.8520                       

(X_U4.57)-373.5E-06                   (X_U4.58) 9.992E-06                       

(X_U4.59)    -.0999                   (X_U4.71)    -.0999                       

(X_U4.72)    -.8825                   (X_U4.73)     .6912                       

(X_U4.74)   13.6000                   (X_U4.75)  -13.4000                       

(X_U4.76)   15.0000                   (X_U4.77)  -15.0000                       

(X_U4.78)    -.0848                   (X_U4.79)    -.1065                       

(X_U4.81)    -.0957                   (X_U4.86)    -.0956                       

(X_U4.91)    0.0000                   (X_U4.92)    0.0000                       

(X_U4.93)    -.5077                   (X_U4.94)    -.0315                       

(X_U4.95)  -13.3000                   (X_U4.96)    -.0315                       

(X_U4.97)   13.3000                   (X_U4.98)    -.0315                       

(X_U4.99)    -.0315                   (X_U6.10)    0.0000                       

(X_U6.11)    -.0868                   (X_U6.17)    0.0000                       

(X_U6.18)    -.0888                   (X_U6.19)    -.0899                       

(X_U6.21)   -1.2500                   (X_U6.22)   28.7500                       

(X_U6.23)   28.7500                   (X_U6.24)    1.6551                       

(X_U6.25)    1.0000                   (X_U6.26)    1.0000                       

(X_U6.27)     .8337                   (X_U6.28)     .6836                       

(X_U6.29)    0.0000                   (X_U6.31)    4.0000                       

(X_U6.32)    3.0000                   (X_U6.33)    2.0000                       

(X_U6.34)    1.0000                   (X_U6.38)    -.0868                       

(X_U6.39)    -.0868                   (X_U6.40)   15.0000                       

(X_U6.41)    -.0868                   (X_U6.42)   15.0000                       

(X_U6.43)    0.0000                   (X_U6.44)    0.0000                       

(X_U6.45)    0.0000                   (X_U6.50)  -15.0000                       

(X_U6.51)   99.3000                   (X_U6.52)  -95.8520                       

(X_U6.57)-799.3E-06                   (X_U6.58) 21.38E-06                       

(X_U6.59)    -.2138                   (X_U6.71)    -.2138                       

(X_U6.72)    -.9964                   (X_U6.73)     .5773                       

(X_U6.74)   13.6000                   (X_U6.75)  -13.4000                       

(X_U6.76)   15.0000                   (X_U6.77)  -15.0000                       

(X_U6.78)    -.1987                   (X_U6.79)    -.2204                       

(X_U6.81)    -.2096                   (X_U6.86)    -.2095                       

(X_U6.91)    0.0000                   (X_U6.92)    0.0000                       

(X_U6.93)    -.5211                   (X_U6.94)    -.0868                       

(X_U6.95)  -13.3000                   (X_U6.96)    -.0868                       

(X_U6.97)   13.3000                   (X_U6.98)    -.0868                       

(X_U6.99)    -.0868                   (X_U7.ll)     .0100                       

(N9022031)    5.0000                  (X_U10.10)   11.7200                      

(X_U10.20)     .3757                  (X_U10.23)     .3756                      

(X_U10.90)    5.0000                  (X_U14.10)    0.0000                      

(X_U14.11)    -.0268                  (X_U14.17)    0.0000                      

(X_U14.18)    -.0271                  (X_U14.19)    -.0281                      

(X_U14.21)   -1.2500                  (X_U14.22)   28.7500                      

(X_U14.23)   28.7500                  (X_U14.24)    1.6551                      

(X_U14.25)    1.0000                  (X_U14.26)    1.0000                      

(X_U14.27)     .8337                  (X_U14.28)     .6836                      

(X_U14.29)    0.0000                  (X_U14.31)    4.0000                      

(X_U14.32)    3.0000                  (X_U14.33)    2.0000                      

(X_U14.34)    1.0000                  (X_U14.38)    -.0268                      

(X_U14.39)    -.0268                  (X_U14.40)   15.0000                      

(X_U14.41)    -.0268                  (X_U14.42)   15.0000                      

(X_U14.43)    0.0000                  (X_U14.44)    0.0000                      

(X_U14.45)    0.0000                  (X_U14.50)  -15.0000                      

(X_U14.51)   99.3000                  (X_U14.52)  -95.8520                      

(X_U14.57)-54.32E-06                  (X_U14.58) 1.453E-06                      

(X_U14.59)    -.0145                  (X_U14.71)    -.0145                      

(X_U14.72)    -.7971                  (X_U14.73)     .7766                      

(X_U14.74)   13.6000                  (X_U14.75)  -13.4000                      

(X_U14.76)   15.0000                  (X_U14.77)  -15.0000                      

(X_U14.78) 546.5E-06                  (X_U14.79)    -.0211                      

(X_U14.81)    -.0103                  (X_U14.86)    -.0103                      

(X_U14.91)    0.0000                  (X_U14.92)    0.0000                      

(X_U14.93)     .5002                  (X_U14.94)    -.0268                      

(X_U14.95)  -13.3000                  (X_U14.96)    -.0268                      

(X_U14.97)   13.3000                  (X_U14.98)    -.0268                      

(X_U14.99)    -.0268                  (X_U26.10)   13.1700                      

(X_U26.11)  -13.1700                  (X_U26.14)    -.0161                      

(X_U26.15)-16.08E-09                  (X_U26.31)     .0056                      

(X_U26.32) 5622.8000                  (X_U26.33)     .0056                      

(X_U26.34) 5622.8000                  (X_U26.35)     .0056                      

(X_U26.36)     .0056                  (X_U26.40)     .0056                      

(X_U26.41)    -.0344                  (X_U26.42)     .0456                      

(X_U26.45)     .0056                  (X_U26.60)    -.5012                      

(X_U26.61)    0.0000                  (X_U26.62)    0.0000                      

(X_U26.98)    0.0000                  (X_U28.10)   13.1700                      

(X_U28.11)  -13.1700                  (X_U28.14)    -.0046                      

(X_U28.15)-4.588E-09                  (X_U28.31)    -.0043                      

(X_U28.32)-4298.3000                  (X_U28.33)    -.0043                      

(X_U28.34)-4298.3000                  (X_U28.35)    -.0043                      

(X_U28.36)    -.0043                  (X_U28.40)    -.0043                      

(X_U28.41)    -.0443                  (X_U28.42)     .0357                      

(X_U28.45)    -.0043                  (X_U28.60)    -.4971                      

(X_U28.61)    0.0000                  (X_U28.62)    0.0000                      

(X_U28.98)    0.0000                  (X_U29.10)    5.0000                      

(X_U29.11)    -.2095                  (X_U29.12) 15.22E-09                      

(X_U29.13)    5.0000                  (X_U4.120)    2.0000                      

(X_U4.121)    1.0000                  (X_U4.122)    1.0009                      

(X_U4.710)     .0294                  (X_U4.720)    -.7602                      

(X_U6.120)    2.0000                  (X_U6.121)    1.0000                      

(X_U6.122)    1.0009                  (X_U6.710)    -.0845                      

(X_U6.720)    -.8741                  (X_U7.cmr)-659.8E-12                      

(X_U7.ib+)    0.0000                  (X_U7.ib-)    0.0000                      

(X_U7.IO1)     .0192                  (X_U7.IO2)     .0316                      

(X_U7.lim)   14.9900                  (X_U7.psr) 330.0E-06                      

(X_U7.rsp)-65.98E-06                  (X_U14.120)    2.0000                     

(X_U14.121)    1.0000                 (X_U14.122)    1.0009                     

(X_U14.710)     .1148                 (X_U14.720)    -.6748                     

(X_U29.100)    5.7286                 (X_U29.101)    5.2095                     

(X_U29.102) 5.739E-06                 (X_U7.lim1)    -.0100                     

(X_U7.OUT1)     .0254                 (X_U7.OUT2)     .0254                 




    VOLTAGE SOURCE CURRENTS
    NAME         CURRENT

    V_Vkepco    -7.438E-06
    V_V3         3.353E-02
    V_Vgenerador  -1.633E-06
    V_Vpolariza  -8.584E-06
    V_V2        -3.438E-02
    X_U28.V1     1.318E-11
    X_U28.V2     1.318E-11
    X_U28.V7    -5.071E-13
    X_U28.V8     2.220E-06
    X_U28.V5    -4.784E-14
    X_U28.V6    -4.791E-14
    X_U4.VOFF   -2.710E-11
    X_U4.VSENS1   1.000E-03
    X_U4.VTEMP   3.014E-06
    X_U4.VCMX   -3.152E-08
    X_U4.VPSX    0.000E+00
    X_U4.VCXX    6.304E-14
    X_U4.VOOP    1.072E-02
    X_U4.VOON    1.072E-02
    X_U4.VOX    -3.352E-06
    X_U4.VFX1   -5.177E-13
    X_U4.VFX2    3.352E-06
    X_U7.Vi+    -6.598E-14
    X_U7.Vi-     0.000E+00
    X_U14.VOFF  -2.710E-11
    X_U14.VSENS1   1.000E-03
    X_U14.VTEMP   3.014E-06
    X_U14.VCMX  -2.683E-08
    X_U14.VPSX   0.000E+00
    X_U14.VCXX   5.367E-14
    X_U14.VOOP   1.072E-02
    X_U14.VOON   1.072E-02
    X_U14.VOX    2.509E-06
    X_U14.VFX1   2.509E-06
    X_U14.VFX2  -5.102E-13
    X_U6.VOFF   -2.710E-11
    X_U6.VSENS1   1.000E-03
    X_U6.VTEMP   3.014E-06
    X_U6.VCMX   -8.685E-08
    X_U6.VPSX    0.000E+00
    X_U6.VCXX    1.737E-13
    X_U6.VOOP    1.072E-02
    X_U6.VOON    1.072E-02
    X_U6.VOX    -5.621E-06
    X_U6.VFX1   -5.311E-13
    X_U6.VFX2    5.621E-06
    X_U26.V1     1.317E-11
    X_U26.V2     1.319E-11
    X_U26.V7    -5.112E-13
    X_U26.V8     2.602E-06
    X_U26.V5    -4.784E-14
    X_U26.V6    -4.792E-14

    TOTAL POWER DISSIPATION   1.02E+00  WATTS

Reducing minimum delta to make the circuit converge.
Reducing minimum delta to make the circuit converge.

ERROR(ORPSIM-15138): Convergence problem in transient analysis at Time =  38.44E-06.
         Time step =  465.9E-21, minimum allowable step size =  1.000E-18

  These voltages failed to converge:

    V(N900373)                =   -1.191mV  \   -1.604mV
    V(N900391)                =    37.43mV  \    37.02mV
    V(N902377)                =    37.50mV  \    37.09mV
    V(VS)                     =    36.98mV  \    36.48mV
    V(X_U4.44)                =   781.25mV  \    3.436nV
    V(X_U14.44)               =   781.25mV  \    3.436nV
    V(X_U6.44)                =   781.25mV  \    3.436nV
    V(X_U29.4)                =    -2.683V  \  -682.48mV
    V(X_U29.12)               =    -6.695V  \    -4.695V
    V(X_U29.6)                =    -1.956V  \    44.27mV
    V(X_U29.5)                =    -2.683V  \  -682.48mV
    V(X_U29.9)                =    -6.692V  \    -4.692V
    V(X_U29.7)                =    -2.000V  \    2.231uV
    V(X_U29.8)                =    -2.002V  \   -1.450mV
    V(X_U29.10)               =    -2.000V  \   -76.97nV
    V(X_U29.11)               =    -2.683V  \  -682.48mV
    V(X_U29.13)               =    -2.708V  \  -708.05mV

  These supply currents failed to converge:

    I(X_U28.EOS)              =   -3.289uA  \   -3.235uA
    I(X_U28.EREF)             =  -106.23nA  \  -612.59nA
    I(X_U4.EXX)               =  -351.33mA  \  -131.37mA
    I(X_U4.EPSR)              =   -7.813mA  \         0A
    I(X_U14.EXX)              =    78.53mA  \   -5.593mA
    I(X_U14.ECMR)             =   -1.281uA  \   -1.286uA
    I(X_U14.EPSR)             =   -7.813mA  \         0A
    I(X_U6.EXX)               =  -199.54mA  \   773.88mA
    I(X_U6.ECMR)              =   -1.187uA  \   -1.171uA
    I(X_U6.EPSR)              =   -7.813mA  \         0A
    I(X_U26.EREF)             =   198.48nA  \  -209.56nA
    I(X_U26.ECM)              =   -1.185uA  \   -1.200uA
    I(X_U29.E1)               =  -131.73nA  \   423.44nA
    I(X_U29.E2)               =   -7.585uA  \    -9.51uA
    I(X_U10.L1)               =   -6.703uA  \   -6.669uA
    I(X_U29.LG)               =   -2.189nA  \   -5.135nA
    I(V_V3)                   =  -438.75mA  \   670.51mA
    I(X_U4.VPSX)              =    7.813mA  \         0A
    I(X_U14.VCMX)             =    1.281uA  \    1.286uA
    I(X_U14.VPSX)             =    7.813mA  \         0A
    I(X_U6.VCMX)              =    1.187uA  \    1.171uA
    I(X_U6.VPSX)              =    7.813mA  \         0A
    I(X_U6.VOX)               =   123.50uA  \   123.02uA
    I(X_U6.VFX1)              =   123.50uA  \   123.02uA

  These devices failed to converge:
    X_U10.DF  



  Last node voltages tried were:

 NODE   VOLTAGE     NODE   VOLTAGE     NODE   VOLTAGE     NODE   VOLTAGE


(   VD)    4.7765  (   VG)    4.0526  (   VS)     .0370  (  15V)   15.0000      

( -15V)  -15.0000  ( VMAX)    4.0100  (N900317)    2.6516                       

(N900367)    4.7765                   (N900373)    -.0012                       

(N900387)    2.6516                   (N900391)     .0374                       

(N900407)    1.7858                   (N900427)    3.4007                       

(N900467)    1.2070                   (N900479)    4.0526                       

(N900571)    4.0000                   (N900795)    1.9837                       

(N900829)    1.9839                   (N900847)    1.3491                       

(N900893)    0.0000                   (N901141)    3.4000                       

(N901335)    1.2065                   (N901523)    4.7765                       

(N901569)    4.9972                   (N901575)    4.9960                       

(N901655)     .0012                   (N901723)    1.3183                       

(N901767)    4.6902                   (N901851)    1.3188                       

(N901903)    2.6516                   (N902185)    5.0000                       

(N902377)     .0375                   (X_U10.3)   -6.5675                       

(X_U10.4)    4.7765                   (X_U26.3)    1.9842                       

(X_U26.4)   14.4100                   (X_U26.5)   14.4100                       

(X_U26.6)    1.2278                   (X_U26.7)    1.2281                       

(X_U26.8)     .6594                   (X_U26.9)    1.3486                       

(X_U28.3)    2.6522                   (X_U28.4)   14.4100                       

(X_U28.5)   14.4100                   (X_U28.6)    1.8955                       

(X_U28.7)    1.8960                   (X_U28.8)    1.3273                       

(X_U28.9)    2.6522                   (X_U29.4)   -2.6825                       

(X_U29.5)   -2.6825                   (X_U29.6)   -1.9557                       

(X_U29.7)   -2.0000                   (X_U29.8)   -2.0015                       

(X_U29.9)   -6.6923                   (X_U4.10)    0.0000                       

(X_U4.11)    3.3029                   (X_U4.17)    0.0000                       

(X_U4.18)    3.3977                   (X_U4.19)    3.3969                       

(X_U4.21)   -1.2500                   (X_U4.22)   28.7500                       

(X_U4.23)   28.7500                   (X_U4.24)    1.6551                       

(X_U4.25)    1.0000                   (X_U4.26)    1.0000                       

(X_U4.27)     .8337                   (X_U4.28)     .6836                       

(X_U4.29)    0.0000                   (X_U4.31)    4.0000                       

(X_U4.32)    3.0000                   (X_U4.33)    2.0000                       

(X_U4.34)    1.0000                   (X_U4.38)    3.3029                       

(X_U4.39)    3.3029                   (X_U4.40)   15.0000                       

(X_U4.41)    3.3029                   (X_U4.42)   15.0000                       

(X_U4.43)-504.5E-15                   (X_U4.44)     .7813                       

(X_U4.45) 6.729E-09                   (X_U4.50)  -15.0000                       

(X_U4.51)   99.3000                   (X_U4.52)  -95.8520                       

(X_U4.57)     .0069                   (X_U4.58)-178.2E-06                       

(X_U4.59)    1.7815                   (X_U4.71)    1.7816                       

(X_U4.72)     .9990                   (X_U4.73)    2.5726                       

(X_U4.74)   13.6000                   (X_U4.75)  -13.4000                       

(X_U4.76)   15.0000                   (X_U4.77)  -15.0000                       

(X_U4.78)    1.7966                   (X_U4.79)    1.7749                       

(X_U4.81)    1.7858                   (X_U4.86)    1.7858                       

(X_U4.91)    0.0000                   (X_U4.92)    0.0000                       

(X_U4.93)     .4035                   (X_U4.94)    3.3029                       

(X_U4.95)  -13.3000                   (X_U4.96)    3.3029                       

(X_U4.97)   13.3000                   (X_U4.98)    3.3029                       

(X_U4.99)    3.3029                   (X_U6.10)    0.0000                       

(X_U6.11)    1.1703                   (X_U6.17)    0.0000                       

(X_U6.18)    1.2041                   (X_U6.19)    1.2034                       

(X_U6.21)   -1.2500                   (X_U6.22)   28.7500                       

(X_U6.23)   28.7500                   (X_U6.24)    1.6551                       

(X_U6.25)    1.0000                   (X_U6.26)    1.0000                       

(X_U6.27)     .8337                   (X_U6.28)     .6836                       

(X_U6.29)    0.0000                   (X_U6.31)    4.0000                       

(X_U6.32)    3.0000                   (X_U6.33)    2.0000                       

(X_U6.34)    1.0000                   (X_U6.38)    1.1703                       

(X_U6.39)    1.1703                   (X_U6.40)   15.0000                       

(X_U6.41)    1.1703                   (X_U6.42)   15.0000                       

(X_U6.43)-504.5E-15                   (X_U6.44)     .7813                       

(X_U6.45) 6.729E-09                   (X_U6.50)  -15.0000                       

(X_U6.51)   99.3000                   (X_U6.52)  -95.8520                       

(X_U6.57)     .0151                   (X_U6.58)-405.0E-06                       

(X_U6.59)    4.0502                   (X_U6.71)    4.0503                       

(X_U6.72)    3.2676                   (X_U6.73)    4.8412                       

(X_U6.74)   13.6000                   (X_U6.75)  -13.4000                       

(X_U6.76)   15.0000                   (X_U6.77)  -15.0000                       

(X_U6.78)    4.0650                   (X_U6.79)    4.0434                       

(X_U6.81)    4.0541                   (X_U6.86)    4.0526                       

(X_U6.91)    0.0000                   (X_U6.92)    0.0000                       

(X_U6.93)     .6010                   (X_U6.94)    1.1703                       

(X_U6.95)  -13.3000                   (X_U6.96)    1.1703                       

(X_U6.97)   13.3000                   (X_U6.98)    1.1703                       

(X_U6.99)    1.1703                   (X_U7.ll)     .0100                       

(N9022031)    4.9972                  (X_U10.10)   11.7200                      

(X_U10.20)     .3757                  (X_U10.23)     .3756                      

(X_U10.90)    4.7765                  (X_U14.10)    0.0000                      

(X_U14.11)    1.2790                  (X_U14.17)    0.0000                      

(X_U14.18)    1.3158                  (X_U14.19)    1.3152                      

(X_U14.21)   -1.2500                  (X_U14.22)   28.7500                      

(X_U14.23)   28.7500                  (X_U14.24)    1.6551                      

(X_U14.25)    1.0000                  (X_U14.26)    1.0000                      

(X_U14.27)     .8337                  (X_U14.28)     .6836                      

(X_U14.29)    0.0000                  (X_U14.31)    4.0000                      

(X_U14.32)    3.0000                  (X_U14.33)    2.0000                      

(X_U14.34)    1.0000                  (X_U14.38)    1.2790                      

(X_U14.39)    1.2790                  (X_U14.40)   15.0000                      

(X_U14.41)    1.2790                  (X_U14.42)   15.0000                      

(X_U14.43)-504.5E-15                  (X_U14.44)     .7813                      

(X_U14.45) 6.729E-09                  (X_U14.50)  -15.0000                      

(X_U14.51)   99.3000                  (X_U14.52)  -95.8520                      

(X_U14.57)     .0175                  (X_U14.58)-469.0E-06                      

(X_U14.59)    4.6899                  (X_U14.71)    4.6900                      

(X_U14.72)    3.9072                  (X_U14.73)    5.4808                      

(X_U14.74)   13.6000                  (X_U14.75)  -13.4000                      

(X_U14.76)   15.0000                  (X_U14.77)  -15.0000                      

(X_U14.78)    4.7045                  (X_U14.79)    4.6829                      

(X_U14.81)    4.6935                  (X_U14.86)    4.6902                      

(X_U14.91)    0.0000                  (X_U14.92)    0.0000                      

(X_U14.93)     .6206                  (X_U14.94)    1.2790                      

(X_U14.95)  -13.3000                  (X_U14.96)    1.2790                      

(X_U14.97)   13.3000                  (X_U14.98)    1.2790                      

(X_U14.99)    1.2790                  (X_U26.10)   13.1700                      

(X_U26.11)  -13.1700                  (X_U26.14)    1.9838                      

(X_U26.15) 1.182E-06                  (X_U26.31)    1.3486                      

(X_U26.32) 1.349E+06                  (X_U26.33)    1.3486                      

(X_U26.34) 1.349E+06                  (X_U26.35)    1.3492                      

(X_U26.36)    1.3486                  (X_U26.40)    1.3486                      

(X_U26.41)    1.3086                  (X_U26.42)    1.3886                      

(X_U26.45)    1.3491                  (X_U26.60)     .5646                      

(X_U26.61)    0.0000                  (X_U26.62)    0.0000                      

(X_U26.98)    0.0000                  (X_U28.10)   13.1700                      

(X_U28.11)  -13.1700                  (X_U28.14)    2.6516                      

(X_U28.15) 2.649E-06                  (X_U28.31)    2.6522                      

(X_U28.32) 2.652E+06                  (X_U28.33)    2.6522                      

(X_U28.34) 2.652E+06                  (X_U28.35)    2.6533                      

(X_U28.36)    2.6522                  (X_U28.40)    2.6522                      

(X_U28.41)    2.6122                  (X_U28.42)    2.6922                      

(X_U28.45)    2.6516                  (X_U28.60)    -.5684                      

(X_U28.61)    0.0000                  (X_U28.62)    0.0000                      

(X_U28.98)    0.0000                  (X_U29.10)   -2.0000                      

(X_U29.11)   -2.6825                  (X_U29.12)   -6.6952                      

(X_U29.13)   -2.7080                  (X_U4.120)    2.0000                      

(X_U4.121)    1.0000                  (X_U4.122)    1.0009                      

(X_U4.710)    1.9109                  (X_U4.720)    1.1213                      

(X_U6.120)    2.0000                  (X_U6.121)    1.0000                      

(X_U6.122)    1.0009                  (X_U6.710)    4.1795                      

(X_U6.720)    3.3899                  (X_U7.cmr) 374.3E-09                      

(X_U7.ib+)    0.0000                  (X_U7.ib-)    0.0000                      

(X_U7.IO1)    4.0038                  (X_U7.IO2)    4.0162                      

(X_U7.lim)   14.9900                  (X_U7.psr) 330.0E-06                      

(X_U7.rsp)     .0398                  (X_U14.120)    2.0000                     

(X_U14.121)    1.0000                 (X_U14.122)    1.0009                     

(X_U14.710)    4.8191                 (X_U14.720)    4.0296                     

(X_U29.100)    1.1490                 (X_U29.101)     .6825                     

(X_U29.102) 1.159E-06                 (X_U7.lim1)    -.0100                     

(X_U7.OUT1)    4.0100                 (X_U7.OUT2)    4.0100                 


**** Interrupt ****
